03_OpenDSS_Circuits/EPRI_ckt24/Summary.txt
/* Capacitors */

New Capacitor.Cap_G2100PL6500 phases=3 kvar=900 bus1=N300521 kV=34.5 conn=wye enabled=true
New Capacitor.Cap_G2100FK7800 phases=3 kvar=1200 bus1=N292388 kV=34.5 conn=wye enabled=true
New Capacitor.Cap_G2101AE7400 phases=3 kvar=1200 bus1=N284062 kV=34.5 conn=wye enabled=true

/* Loads */
New load.278071200 phases=1 kV=0.24 bus1=G2000RN2800_N274196_sec_1.3 xfkVA=3.25119253	pf=0.98	status=variable	model=4 CVRwatts=0.8	CVRvars=3	conn=wye	Vminpu=0.7	duty=LS_PhaseC		!	Phase	3


/* Substation */
New Transformer.SubXFMR Phases=3 Windings=2 Xhl=10.63 wdg=1 conn=delta bus=SourceBus kV=230 kVA=45000 wdg=2 bus=SubXfmr_LSB kV=34.5 kVA=45000 conn=wye mintap=0.9 maxtap=1.1 sub=yes
~ %noloadloss=0.18 !assumed
~ %Rs = (0.12,0.12)
~ emergHkva = 75000

New Regcontrol.SubXFMR_Regulator  transformer=SubXFMR  winding=2   vreg=122.0 band=3 ptratio=166 ctprim=2000 R=7 X=0 enabled=True debugtrace=no delay=45 


New line.fdr_05410 bus1=SubXfmr_LSB bus2=05410 linecode=busbar phases=3 length=1 units=ft

New monitor.SubXFMR_taps element=Transformer.SubXFMR terminal=2 mode=2


/* Monitors */
New Monitor.fdr_05410_Mon_VI  element=line.fdr_05410 term=1  mode=0 Residual=Yes
New Monitor.fdr_05410_Mon_PQ  element=line.fdr_05410 term=1  mode=1 PPolar=No
New Monitor.fdr_05410_Mon_VA  element=line.fdr_05410 term=1  mode=1 PPolar=Yes
New Monitor.OtherFeeder_Mon_PQ element=line.Other_Feeders term=1  mode=1 PPolar=No
New Monitor.Cap1 element=Capacitor.Cap_G2100PL6500 terminal=1 mode=65
New monitor.Cap1VI element=Capacitor.Cap_G2100PL6500 terminal=1 mode=0
New Monitor.LTC element=Transformer.SubXFMR terminal=2 mode=2
New monitor.subVI element=Transformer.SubXFMR terminal=2 mode=0

New energymeter.fdr_05410 element=line.fdr_05410 term=1 option=M action=C PhaseVolt=YES peakcurrent=(466,469,452)

/* Main */
Clear
New Circuit.ckt24 bus1=SourceBus pu=1.05  basekV=230 R1=0.63 X1=6.72 R0=4.07 X0=15.55

Redirect  Wiredata_ckt24.dss
Redirect  Linegeometry_ckt24.dss
Redirect  LineCodes_ckt24.dss
Redirect  TriplexLineCodes_ckt24.dss
Redirect  Substation_ckt24.dss

! Loadshapes for yearly simulations (normalized)
New Loadshape.LS_PhaseA npts=8760 minterval=60 mult=(file=LS_PhaseA.txt) action=normalize 
New Loadshape.LS_PhaseB npts=8760 minterval=60 mult=(file=LS_PhaseB.txt) action=normalize
New Loadshape.LS_PhaseC npts=8760 minterval=60 mult=(file=LS_PhaseC.txt) action=normalize
New Loadshape.LS_ThreePhase npts=8760 minterval=60 mult=(file=LS_ThreePhase.txt) action=normalize
New Loadshape.Other_Bus_Load npts=8760 minterval=60 mult=(file=Other_Bus_Load.txt) action=normalize

Redirect  lines_ckt24.dss
Redirect  Capacitors_ckt24.dss
Redirect  stepxfmrs_ckt24.dss
Redirect  transformers_ckt24.dss
Redirect  sec_serv_ckt24.dss

! Loads (allocated by XF kVA)
Redirect  Allocated_Loads_ckt24.dss
Redirect Other_Load_ckt24.dss
! set the initial allocation factors based on previousload allocations
Redirect  AllocationFactors_Base.Txt  !!! R=7 Vset=123

! Let OpenDSS define the voltage bases
Set voltagebases=[230,34.5,13.2,0.48,0.415,0.208]   ! Allowable voltage bases for this problem
Calcvoltagebases

! Define the monitors
Redirect Monitors_ckt24.dss

! optional energy meter. this was used to allocate the loads
! New energymeter.Feeder element=line.fdr_05410 term=1 option=R action=C PhaseVolt=yes peakcurrent=(466,469,452)

! now that we have buses defined, define the bus coordinates so we can draw pictures
Buscoords buscoords_ckt24.dss

solve